pglib_opf_case300_ieee/pglib_opf_case300_ieee_3regions.m
% -------------------------------------------------------------------------
% Partitioned MATPOWER Case File
% Copyright (c) 2025 Milad Hasanzadeh
% Generated on: 2025-06-05
% This file contains partitioned data for 3 regions


% -------------------- mpc_regionR1 --------------------

mpc_regionR1.version = '2';
mpc_regionR1.baseMVA = 100.0000;
mpc_regionR1.bus = [
%	bus_i       type        Pd          Qd          Gs          Bs          area        Vm          Va          baseKV      zone        Vmax        Vmin        
	 1	 1	 0	 0	 0	 0	 1	 1	 0	 345	 1	 1.06	 0.94;
	 2	 1	 160	 60	 0	 0	 1	 1	 0	 115	 1	 1.06	 0.94;
	 3	 1	 126.7	 23	 0	 0	 1	 1	 0	 115	 1	 1.06	 0.94;
	 4	 1	 0	 0	 0	 0	 1	 1	 0	 345	 1	 1.06	 0.94;
	 5	 1	 561	 220	 0	 0	 1	 1	 0	 115	 1	 1.06	 0.94;
	 6	 1	 55	 6	 0	 0	 1	 1	 0	 115	 1	 1.06	 0.94;
	 7	 1	 0	 0	 0	 0	 1	 1	 0	 345	 1	 1.06	 0.94;
	 8	 1	 85	 32	 0	 0	 1	 1	 0	 115	 1	 1.06	 0.94;
	 9	 1	 155	 18	 0	 0	 1	 1	 0	 115	 1	 1.06	 0.94;
	 10	 1	 0	 0	 0	 0	 1	 1	 0	 345	 1	 1.06	 0.94;
	 11	 1	 46	-21	 0	 0	 1	 1	 0	 115	 1	 1.06	 0.94;
	 12	 1	 86	 0	 0	 0	 1	 1	 0	 115	 1	 1.06	 0.94;
	 13	 1	 0	 0	 0	 0	 1	 1	 0	 345	 1	 1.06	 0.94;
	 14	 1	 39	 9	 0	 0	 1	 1	 0	 115	 1	 1.06	 0.94;
	 15	 1	 195	 29	 0	 0	 1	 1	 0	 115	 1	 1.06	 0.94;
	 16	 1	 41	 19	 0	 0	 1	 1	 0	 115	 1	 1.06	 0.94;
	 17	 1	 92	 26	 0	 0	 1	 1	 0	 115	 1	 1.06	 0.94;
	 18	 1	-5	 5	 0	 0	 1	 1	 0	 115	 1	 1.06	 0.94;
	 19	 1	 61	 28	 0	 0	 1	 1	 0	 115	 1	 1.06	 0.94;
	 20	 1	 69	 3	 0	 0	 1	 1	 0	 115	 1	 1.06	 0.94;
	 21	 1	 10	 1	 0	 0	 1	 1	 0	 115	 1	 1.06	 0.94;
	 22	 1	 22	 10	 0	 0	 1	 1	 0	 115	 1	 1.06	 0.94;
	 23	 1	 98	 20	 0	 0	 1	 1	 0	 115	 1	 1.06	 0.94;
	 24	 1	 14	 1	 0	 0	 1	 1	 0	 115	 1	 1.06	 0.94;
	 25	 2	 70	 30	 0	 0	 1	 1	 0	 115	 1	 1.06	 0.94;
	 26	 1	 0	 0	 0	 0	 1	 1	 0	 230	 1	 1.06	 0.94;
	 27	 1	 0	 0	 0	 0	 1	 1	 0	 230	 1	 1.06	 0.94;
	 28	 1	 0	 0	 0	 0	 1	 1	 0	 230	 1	 1.06	 0.94;
	 29	 1	 44.2	 0	 0	 0	 1	 1	 0	 115	 1	 1.06	 0.94;
	 30	 1	 66	 0	 0	 0	 1	 1	 0	 115	 1	 1.06	 0.94;
	 31	 2	 17.4	 0	 0	 0	 1	 1	 0	 115	 1	 1.06	 0.94;
	 32	 2	 15.8	 0	 0	 0	 1	 1	 0	 115	 1	 1.06	 0.94;
	 33	 1	 60.3	 0	 0	 0	 1	 1	 0	 115	 1	 1.06	 0.94;
	 34	 1	 39.9	 0	 0	 0	 1	 1	 0	 115	 1	 1.06	 0.94;
	 35	 2	 66.7	 0	 0	 0	 1	 1	 0	 115	 1	 1.06	 0.94;
	 36	 1	 83.5	 0	 0	 0	 1	 1	 0	 115	 1	 1.06	 0.94;
	 37	 1	 0	 0	 0	 0	 1	 1	 0	 115	 1	 1.06	 0.94;
	 38	 1	 77.8	 0	 0	 0	 1	 1	 0	 115	 1	 1.06	 0.94;
	 39	 1	 32	 0	 0	 0	 1	 1	 0	 115	 1	 1.06	 0.94;
	 40	 1	 8.6	 0	 0	 0	 1	 1	 0	 115	 1	 1.06	 0.94;
	 41	 1	 49.6	 0	 0	 0	 1	 1	 0	 115	 1	 1.06	 0.94;
	 42	 1	 4.6	 0	 0	 0	 1	 1	 0	 115	 1	 1.06	 0.94;
	 43	 2	 112.1	 0	 0	 0	 1	 1	 0	 115	 1	 1.06	 0.94;
	 44	 1	 30.7	 0	 0	 0	 1	 1	 0	 115	 1	 1.06	 0.94;
	 45	 1	 63	 0	 0	 0	 1	 1	 0	 115	 1	 1.06	 0.94;
	 46	 1	 19.6	 0	 0	 0	 1	 1	 0	 115	 1	 1.06	 0.94;
	 47	 1	 2.4	-3.9	 0	 0	 1	 1	 0	 115	 1	 1.06	 0.94;
	 48	 1	-14.9	 26.5	 0	 0	 1	 1	 0	 230	 1	 1.06	 0.94;
	 49	 1	 24.7	-1.2	 0	 0	 1	 1	 0	 115	 1	 1.06	 0.94;
	 50	 1	 145.3	-34.9	 0	 0	 1	 1	 0	 115	 1	 1.06	 0.94;
	 51	 2	 0	 0	 0	 0	 1	 1	 0	 13.8	 1	 1.06	 0.94;
	 52	 2	 0	 0	 0	 0	 1	 1	 0	 20	 1	 1.06	 0.94;
	 53	 2	 0	 0	 0	 0	 1	 1	 0	 13.8	 1	 1.06	 0.94;
	 54	 3	 0	 0	 0	 0	 1	 1	 0	 13.8	 1	 1.06	 0.94;
	 55	 2	 0	 0	 0	 0	 1	 1	 0	 13.8	 1	 1.06	 0.94;
	 56	 2	 0	 0	 0	 0	 1	 1	 0	 13.8	 1	 1.06	 0.94;
	 57	 1	 0	 0	 0	 0	 1	 1	 0	 115	 9	 1.06	 0.94;
	 58	 2	 4.2	 0	 0	 0	 1	 1	 0	 6.6	 9	 1.06	 0.94;
	 59	 1	 2.71	 0.94	 0.14	 2.4	 1	 1	 0	 6.6	 9	 1.06	 0.94;
	 60	 1	 0.86	 0.28	 0	 0	 1	 1	 0	 6.6	 9	 1.06	 0.94;
	 61	 1	 0	 0	 0	 0	 1	 1	 0	 115	 9	 1.06	 0.94;
	 62	 1	 0	 0	 0	 0	 1	 1	 0	 6.6	 9	 1.06	 0.94;
	 63	 1	 0	 0	 0	 0	 1	 1	 0	 6.6	 9	 1.06	 0.94;
	 64	 1	 0	 0	 0	 0	 1	 1	 0	 6.6	 9	 1.06	 0.94;
	 65	 1	 4.75	 1.56	 0	 0	 1	 1	 0	 6.6	 9	 1.06	 0.94;
	 66	 1	 1.53	 0.53	 0.08	 0	 1	 1	 0	 0.6	 9	 1.06	 0.94;
	 67	 1	 0	 0	 0	 0	 1	 1	 0	 6.6	 9	 1.06	 0.94;
	 68	 1	 1.35	 0.47	 0.07	 0	 1	 1	 0	 0.6	 9	 1.06	 0.94;
	 69	 1	 0.45	 0.16	 0.02	 0	 1	 1	 0	 0.6	 9	 1.06	 0.94;
	 70	 1	 0.45	 0.16	 0.02	 0	 1	 1	 0	 0.6	 9	 1.06	 0.94;
	 71	 1	 1.84	 0.64	 0.1	 0	 1	 1	 0	 0.6	 9	 1.06	 0.94;
	 72	 1	 1.39	 0.48	 0.07	 0	 1	 1	 0	 0.6	 9	 1.06	 0.94;
	 73	 1	 1.89	 0.65	 0.1	 0	 1	 1	 0	 0.6	 9	 1.06	 0.94;
	 74	 1	 1.55	 0.54	 0.08	 1.72	 1	 1	 0	 0.6	 9	 1.06	 0.94;
	 75	 1	 1.66	 0.58	 0.09	 0	 1	 1	 0	 0.6	 9	 1.06	 0.94;
	 76	 1	 3.03	 1	 0	 0	 1	 1	 0	 2.3	 9	 1.06	 0.94;
	 77	 1	 1.86	 0.64	 0.1	 0	 1	 1	 0	 0.6	 9	 1.06	 0.94;
	 78	 1	 2.58	 0.89	 0.14	 0	 1	 1	 0	 0.6	 9	 1.06	 0.94;
	 79	 1	 1.01	 0.35	 0.05	 0	 1	 1	 0	 0.6	 9	 1.06	 0.94;
	 80	 1	 0.81	 0.28	 0.04	 0	 1	 1	 0	 0.6	 9	 1.06	 0.94;
	 81	 1	 1.6	 0.52	 0	 0	 1	 1	 0	 2.3	 9	 1.06	 0.94;
	 82	 1	 0	 0	 0	 0	 1	 1	 0	 6.6	 9	 1.06	 0.94;
	 83	 2	 35.81	 0	 0	 0	 1	 1	 0	 13.8	 9	 1.06	 0.94;
	 84	 1	 30	 23	 0	 0	 1	 1	 0	 13.8	 9	 1.06	 0.94;
	 85	 2	 26.48	 0	 0	 0	 1	 1	 0	 13.8	 9	 1.06	 0.94;
	 86	 2	 0	 0	 0	 0	 1	 1	 0	 13.8	 9	 1.06	 0.94;
	 87	 2	 0	 0	 0	 0	 1	 1	 0	 13.8	 9	 1.06	 0.94;
	 88	 1	 1.02	 0.35	 0.05	 0	 1	 1	 0	 0.6	 9	 1.06	 0.94;
	 89	 1	 1.02	 0.35	 0.05	 0	 1	 1	 0	 0.6	 9	 1.06	 0.94;
	 90	 1	 3.8	 1.25	 0	 0	 1	 1	 0	 6.6	 9	 1.06	 0.94;
	 91	 1	 1.19	 0.41	 0.1	 0	 1	 1	 0	 2.3	 9	 1.06	 0.94;
];

mpc_regionR1.gen = [
%	bus         Pg          Qg          Qmax        Qmin        Vg          mBase       status      Pmax        Pmin        Pc1         Pc2         Qc1min      Qc1max      Qc2min      Qc2max      ramp_agc    ramp_10     ramp_30     ramp_q      apf         
	 25	 0	 0	 25	-25	 1	 100	 1	 0	 0;
	 31	 92.5	 41	 93	-11	 1	 100	 1	 185	 0;
	 32	 180	 0	 153	-153	 1	 100	 1	 360	 0;
	 35	 46.5	 8.5	 47	-30	 1	 100	 1	 93	 0;
	 43	 98.5	 26.5	 77	-24	 1	 100	 1	 197	 0;
	 51	 245	 122.5	 245	 0	 1	 100	 1	 490	 0;
	 52	 290	 0	 200	-200	 1	 100	 1	 580	 0;
	 53	 66	 21	 42	 0	 1	 100	 1	 132	 0;
	 54	 359	 5	 10	 0	 1	 100	 1	 718	 0;
	 55	 79	 12.5	 25	 0	 1	 100	 1	 158	 0;
	 56	 167	 0	 90	-90	 1	 100	 1	 334	 0;
	 58	 0	 0	 2	-2	 1	 100	 1	 0	 0;
	 83	 0	 0	 17.35	-17.35	 1	 100	 1	 0	 0;
	 85	 0	 0.015	 12.83	-12.8	 1	 100	 1	 0	 0;
	 86	 42	 0	 38	-38	 1	 100	 1	 84	 0;
	 87	 18.5	 0	 6	-6	 1	 100	 1	 37	 0;
];

mpc_regionR1.branch = [
%	fbus        tbus        r           x           b           rateA       rateB       rateC       ratio       angle       status      angmin      angmax      
	 8	 57	 6e-05	 0.00046	 0	 9900	 63230	 63230	 1.0082	 0	 1	-30	 30;
	 57	 61	 0.0008	 0.00348	 0	 8215	 8215	 8215	 0	 0	 1	-30	 30;
	 57	 62	 0.02439	 0.43682	 0	 68	 68	 68	 0.9668	 0	 1	-30	 30;
	 57	 64	 0.03624	 0.64898	 0	 46	 46	 46	 0.9796	 0	 1	-30	 30;
	 61	 83	 0.01578	 0.37486	 0	 79	 79	 79	 1.0435	 0	 1	-30	 30;
	 61	 84	 0.01578	 0.37486	 0	 79	 79	 79	 0.9391	 0	 1	-30	 30;
	 61	 85	 0.01602	 0.38046	 0	 78	 78	 78	 1.0435	 0	 1	-30	 30;
	 61	 86	 0	 0.152	 0	 193	 193	 193	 1.0435	 0	 1	-30	 30;
	 61	 87	 0	 0.8	 0	 37	 37	 37	 1.0435	 0	 1	-30	 30;
	 62	 63	 0.05558	 0.24666	 0	 117	 117	 117	 0	 0	 1	-30	 30;
	 62	 59	 0.11118	 0.49332	 0	 59	 59	 59	 0	 0	 1	-30	 30;
	 62	 59	 0.11118	 0.49332	 0	 59	 59	 59	 0	 0	 1	-30	 30;
	 64	 58	 0.07622	 0.43286	 0	 67	 67	 67	 0	 0	 1	-30	 30;
	 64	 58	 0.07622	 0.43286	 0	 67	 67	 67	 0	 0	 1	-30	 30;
	 58	 65	 0.0537	 0.07026	 0	 332	 332	 332	 0	 0	 1	-30	 30;
	 65	 67	 1.1068	 0.95278	 0	 21	 21	 21	 0	 0	 1	-30	 30;
	 65	 66	 0.44364	 2.8152	 0	 11	 11	 11	 1	 0	 1	-30	 30;
	 58	 68	 0.50748	 3.2202	 0	 9	 9	 9	 1	 0	 1	-30	 30;
	 67	 69	 0.66688	 3.944	 0	 8	 8	 8	 1	 0	 1	-30	 30;
	 67	 70	 0.6113	 3.6152	 0	 8	 8	 8	 1	 0	 1	-30	 30;
	 63	 88	 0.4412	 2.9668	 0	 10	 10	 10	 1	 0	 1	-30	 30;
	 63	 89	 0.30792	 2.057	 0	 15	 15	 15	 1	 0	 1	-30	 30;
	 63	 59	 0.0558	 0.24666	 0	 116	 116	 116	 0	 0	 1	-30	 30;
	 59	 71	 0.73633	 4.6724	 0	 7	 7	 7	 1	 0	 1	-30	 30;
	 59	 72	 0.76978	 4.8846	 0	 6	 6	 6	 1	 0	 1	-30	 30;
	 59	 73	 0.75732	 4.8056	 0	 7	 7	 7	 1	 0	 1	-30	 30;
	 59	 82	 0.07378	 0.06352	 0	 302	 302	 302	 0	 0	 1	-30	 30;
	 82	 60	 0.03832	 0.02894	 0	 611	 611	 611	 0	 0	 1	-30	 30;
	 60	 79	 0.36614	 2.456	 0	 12	 12	 12	 1	 0	 1	-30	 30;
	 60	 80	 1.0593	 5.4536	 0	 6	 6	 6	 1	 0	 1	-30	 30;
	 60	 81	 0.1567	 1.6994	 0	 18	 18	 18	 1	 0	 1	-30	 30;
	 59	 74	 0.13006	 1.3912	 0	 21	 21	 21	 1	 0	 1	-30	 30;
	 59	 75	 0.54484	 3.4572	 0	 9	 9	 9	 1	 0	 1	-30	 30;
	 59	 76	 0.15426	 1.6729	 0	 18	 18	 18	 1	 0	 1	-30	 30;
	 59	 77	 0.3849	 2.5712	 0	 12	 12	 12	 1	 0	 1	-30	 30;
	 59	 78	 0.4412	 2.9668	 0	 10	 10	 10	 1	 0	 1	-30	 30;
	 64	 90	 0.23552	 0.99036	 0	 29	 29	 29	 0	 0	 1	-30	 30;
	 85	 91	 0	 0.75	 0	 40	 40	 40	 0.9583	 0	 1	-30	 30;
	 1	 4	 0.002	 0.019	 1.127	 1536	 1536	 1536	 0	 0	 1	-30	 30;
	 2	 3	 0.014	 0.042	 0.097	 663	 663	 663	 0	 0	 1	-30	 30;
	 3	 8	 0.065	 0.248	 0.121	 115	 115	 115	 0	 0	 1	-30	 30;
	 3	 29	 0.099	 0.248	 0.035	 110	 110	 110	 0	 0	 1	-30	 30;
	 3	 30	 0.096	 0.363	 0.048	 79	 79	 79	 0	 0	 1	-30	 30;
	 4	 13	 0.002	 0.022	 1.28	 1328	 1328	 1328	 0	 0	 1	-30	 30;
	 6	 7	 0	 0.063	 0	 466	 466	 466	 1	 0	 1	-30	 30;
	 6	 9	 0.0025	 0.012	 0.013	 2393	 2393	 2393	 0	 0	 1	-30	 30;
	 6	 11	 0.006	 0.029	 0.02	 991	 991	 991	 0	 0	 1	-30	 30;
	 6	 12	 0.007	 0.043	 0.026	 674	 674	 674	 0	 0	 1	-30	 30;
	 7	 13	 0.001	 0.008	 0.042	 3639	 3639	 3639	 0	 0	 1	-30	 30;
	 8	 9	 0.008	 0.047	 0.008	 616	 616	 616	 0	 0	 1	-30	 30;
	 8	 11	 0.022	 0.064	 0.007	 434	 434	 434	 0	 0	 1	-30	 30;
	 8	 12	 0.01	 0.036	 0.02	 786	 786	 786	 0	 0	 1	-30	 30;
	 8	 17	 0.017	 0.081	 0.048	 355	 355	 355	 0	 0	 1	-30	 30;
	 8	 29	 0.102	 0.254	 0.033	 108	 108	 108	 0	 0	 1	-30	 30;
	 8	 30	 0.047	 0.127	 0.016	 217	 217	 217	 0	 0	 1	-30	 30;
	 9	 12	 0.008	 0.037	 0.02	 775	 775	 775	 0	 0	 1	-30	 30;
	 9	 14	 0.032	 0.087	 0.04	 317	 317	 317	 0	 0	 1	-30	 30;
	 10	 13	 0.0006	 0.0064	 0.404	 4564	 4564	 4564	 0	 0	 1	-30	 30;
	 11	 16	 0.026	 0.154	 0.022	 188	 188	 188	 0	 0	 1	-30	 30;
	 12	 13	 0	 0.029	 0	 1012	 1012	 1012	 1	 0	 1	-30	 30;
	 12	 17	 0.065	 0.191	 0.02	 146	 146	 146	 0	 0	 1	-30	 30;
	 12	 18	 0.031	 0.089	 0.036	 312	 312	 312	 0	 0	 1	-30	 30;
	 14	 15	 0.026	 0.072	 0.035	 384	 384	 384	 0	 0	 1	-30	 30;
	 14	 16	 0.095	 0.262	 0.032	 106	 106	 106	 0	 0	 1	-30	 30;
	 14	 20	 0.013	 0.039	 0.016	 714	 714	 714	 0	 0	 1	-30	 30;
	 15	 21	 0.028	 0.084	 0.037	 332	 332	 332	 0	 0	 1	-30	 30;
	 16	 42	 0.025	 0.062	 0.007	 439	 439	 439	 0	 0	 1	-30	 30;
	 17	 18	 0.031	 0.094	 0.043	 297	 297	 297	 0	 0	 1	-30	 30;
	 18	 19	 0.037	 0.109	 0.049	 255	 255	 255	 0	 0	 1	-30	 30;
	 19	 22	 0.027	 0.08	 0.036	 348	 348	 348	 0	 0	 1	-30	 30;
	 20	 21	 0.025	 0.073	 0.035	 381	 381	 381	 0	 0	 1	-30	 30;
	 21	 22	 0.035	 0.103	 0.047	 270	 270	 270	 0	 0	 1	-30	 30;
	 22	 23	 0.065	 0.169	 0.082	 162	 162	 162	 0	 0	 1	-30	 30;
	 23	 24	 0.046	 0.08	 0.036	 318	 318	 318	 0	 0	 1	-30	 30;
	 23	 25	 0.159	 0.537	 0.071	 53	 53	 53	 0	 0	 1	-30	 30;
	 25	 50	 0.0265	 0.172	 0.026	 169	 169	 169	 0	 0	 1	-30	 30;
	 26	 27	 0.008	 0.064	 0.128	 455	 455	 455	 0	 0	 1	-30	 30;
	 27	 28	 0.012	 0.093	 0.183	 313	 313	 313	 0	 0	 1	-30	 30;
	 27	 48	 0.006	 0.048	 0.092	 607	 607	 607	 0	 0	 1	-30	 30;
	 29	 31	 0.047	 0.119	 0.014	 230	 230	 230	 0	 0	 1	-30	 30;
	 30	 32	 0.032	 0.174	 0.024	 166	 166	 166	 0	 0	 1	-30	 30;
	 31	 33	 0.1	 0.253	 0.031	 108	 108	 108	 0	 0	 1	-30	 30;
	 31	 34	 0.022	 0.077	 0.039	 367	 367	 367	 0	 0	 1	-30	 30;
	 32	 39	 0.019	 0.144	 0.017	 202	 202	 202	 0	 0	 1	-30	 30;
	 32	 41	 0.017	 0.092	 0.012	 314	 314	 314	 0	 0	 1	-30	 30;
	 33	 34	 0.278	 0.427	 0.043	 58	 58	 58	 0	 0	 1	-30	 30;
	 34	 37	 0.022	 0.053	 0.007	 512	 512	 512	 0	 0	 1	-30	 30;
	 34	 38	 0.038	 0.092	 0.012	 295	 295	 295	 0	 0	 1	-30	 30;
	 34	 39	 0.048	 0.122	 0.015	 224	 224	 224	 0	 0	 1	-30	 30;
	 35	 37	 0.024	 0.064	 0.007	 430	 430	 430	 0	 0	 1	-30	 30;
	 35	 38	 0.034	 0.121	 0.015	 234	 234	 234	 0	 0	 1	-30	 30;
	 36	 42	 0.053	 0.135	 0.017	 203	 203	 203	 0	 0	 1	-30	 30;
	 36	 43	 0.002	 0.004	 0.002	 6559	 6559	 6559	 0	 0	 1	-30	 30;
	 36	 44	 0.045	 0.354	 0.044	 83	 83	 83	 0	 0	 1	-30	 30;
	 36	 45	 0.05	 0.174	 0.022	 163	 163	 163	 0	 0	 1	-30	 30;
	 37	 38	 0.016	 0.038	 0.004	 712	 712	 712	 0	 0	 1	-30	 30;
	 38	 40	 0.043	 0.064	 0.027	 381	 381	 381	 0	 0	 1	-30	 30;
	 39	 41	 0.019	 0.062	 0.008	 453	 453	 453	 0	 0	 1	-30	 30;
	 40	 43	 0.076	 0.13	 0.044	 195	 195	 195	 0	 0	 1	-30	 30;
	 40	 47	 0.044	 0.124	 0.015	 223	 223	 223	 0	 0	 1	-30	 30;
	 41	 42	 0.012	 0.088	 0.011	 331	 331	 331	 0	 0	 1	-30	 30;
	 41	 45	 0.157	 0.4	 0.047	 69	 69	 69	 0	 0	 1	-30	 30;
	 43	 49	 0.074	 0.208	 0.026	 133	 133	 133	 0	 0	 1	-30	 30;
	 44	 45	 0.07	 0.184	 0.021	 149	 149	 149	 0	 0	 1	-30	 30;
	 45	 46	 0.142	 0.404	 0.05	 69	 69	 69	 0	 0	 1	-30	 30;
	 3	 5	 0.0194	 0.0311	 0	 801	 801	 801	 0.9561	 0	 1	-30	 30;
	 4	 3	 0.001	 0.038	 0	 772	 772	 772	 0.971	 0	 1	-30	 30;
	 26	 36	 0	 0.048	 0	 612	 612	 612	 1	 0	 1	-30	 30;
	 27	 38	 0	 0.048	 0	 612	 612	 612	 1	 0	 1	-30	 30;
	 28	 33	 0	 0.046	 0	 638	 638	 638	 1.015	 0	 1	-30	 30;
	 54	 17	 0	 0.0124	 0	 2366	 2366	 2366	 1	 0	 1	-30	 30;
	 51	 5	 0	 0.01654	 0	 1774	 1774	 1774	 0.942	 0	 1	-30	 30;
	 52	 10	 0	 0.03159	 0	 929	 929	 929	 0.965	 0	 1	-30	 30;
	 56	 23	 0	 0.05347	 0	 549	 549	 549	 0.95	 0	 1	-30	 30;
	 53	 15	 0	 0.18181	 0	 162	 162	 162	 0.942	 0	 1	-30	 30;
	 55	 22	 0	 0.19607	 0	 150	 150	 150	 0.942	 0	 1	-30	 30;
];

mpc_regionR1.gencost = [
%	2           startup     shutdown    n           c(n-1)...c0 
	 2	 0	 0	 3	 0	 0	 0;
	 2	 0	 0	 3	 0	 46.100054	 0;
	 2	 0	 0	 3	 0	 54.164939	 0;
	 2	 0	 0	 3	 0	 27.238416	 0;
	 2	 0	 0	 3	 0	 38.430722	 0;
	 2	 0	 0	 3	 0	 35.126651	 0;
	 2	 0	 0	 3	 0	 103.987496	 0;
	 2	 0	 0	 3	 0	 38.825689	 0;
	 2	 0	 0	 3	 0	 6.843072	 0;
	 2	 0	 0	 3	 0	 29.772562	 0;
	 2	 0	 0	 3	 0	 62.427103	 0;
	 2	 0	 0	 3	 0	 0	 0;
	 2	 0	 0	 3	 0	 0	 0;
	 2	 0	 0	 3	 0	 0	 0;
	 2	 0	 0	 3	 0	 32.961473	 0;
	 2	 0	 0	 3	 0	 94.758209	 0;
];


% -------------------- mpc_regionR2 --------------------

mpc_regionR2.version = '2';
mpc_regionR2.baseMVA = 100.0000;
mpc_regionR2.bus = [
%	bus_i       type        Pd          Qd          Gs          Bs          area        Vm          Va          baseKV      zone        Vmax        Vmin        
	 1	 1	 90	 49	 0	 0	 1	 1	 0	 115	 1	 1.06	 0.94;
	 2	 1	 56	 15	 0	 0	 1	 1	 0	 115	 1	 1.06	 0.94;
	 3	 1	 20	 0	 0	 0	 1	 1	 0	 230	 1	 1.06	 0.94;
	 4	 1	 353	 130	 0	 0	 1	 1	 0	 115	 1	 1.06	 0.94;
	 5	 1	 120	 41	 0	 0	 1	 1	 0	 115	 1	 1.06	 0.94;
	 6	 1	 0	 0	 0	 0	 1	 1	 0	 230	 1	 1.06	 0.94;
	 7	 2	 63	 14	 0	 0	 1	 1	 0	 115	 1	 1.06	 0.94;
	 8	 1	 96	 43	 0	 0	 1	 1	 0	 115	 1	 1.06	 0.94;
	 9	 2	 153	 33	 0	 0	 1	 1	 0	 230	 1	 1.06	 0.94;
	 10	 1	 83	 21	 0	 0	 1	 1	 0	 115	 1	 1.06	 0.94;
	 11	 1	 0	 0	 0	 0	 1	 1	 0	 230	 1	 1.06	 0.94;
	 12	 1	 58	 10	 0	 0	 1	 1	 0	 115	 1	 1.06	 0.94;
	 13	 1	 0	 0	 0	 0	 1	 1	 0	 230	 1	 1.06	 0.94;
	 14	 2	 605	 120	 0	 0	 1	 1	 0	 115	 1	 1.06	 0.94;
	 15	 1	 77	 1	 0	 0	 1	 1	 0	 230	 1	 1.06	 0.94;
	 16	 1	 81	 23	 0	 0	 1	 1	 0	 115	 1	 1.06	 0.94;
	 17	 1	 21	 7	 0	 0	 1	 1	 0	 115	 1	 1.06	 0.94;
	 18	 1	 0	 0	 0	 0	 1	 1	 0	 230	 1	 1.06	 0.94;
	 19	 1	 45	 12	 0	 0	 1	 1	 0	 115	 1	 1.06	 0.94;
	 20	 1	 28	 9	 0	 0	 1	 1	 0	 115	 1	 1.06	 0.94;
	 21	 1	 69	 13	 0	 0	 1	 1	 0	 115	 1	 1.06	 0.94;
	 22	 1	 218	 106	 0	 0	 1	 1	 0	 115	 1	 1.06	 0.94;
	 23	 1	 227	 110	 0	 0	 1	 1	 0	 115	 1	 1.06	 0.94;
	 24	 1	 0	 0	 0	 0	 1	 1	 0	 230	 1	 1.06	 0.94;
	 25	 1	 0	 0	 0	 0	 1	 1	 0	 230	 1	 1.06	 0.94;
	 26	 1	 0	 0	 0	 0	 1	 1	 0	 115	 2	 1.06	 0.94;
	 27	 1	 0	 0	 0	 0	 1	 1	 0	 115	 2	 1.06	 0.94;
	 28	 1	 0	 0	 0	 325	 1	 1	 0	 115	 2	 1.06	 0.94;
	 29	 1	 14.1	 650	 0	 0	 1	 1	 0	 115	 2	 1.06	 0.94;
	 30	 2	 0	 0	 0	 0	 1	 1	 0	 115	 2	 1.06	 0.94;
	 31	 1	 777	 215	 0	 55	 1	 1	 0	 115	 2	 1.06	 0.94;
	 32	 1	 535	 55	 0	 0	 1	 1	 0	 115	 2	 1.06	 0.94;
	 33	 1	 229.1	 11.8	 0	 0	 1	 1	 0	 115	 2	 1.06	 0.94;
	 34	 1	 78	 1.4	 0	 0	 1	 1	 0	 115	 2	 1.06	 0.94;
	 35	 2	 276.4	 59.3	 0	 0	 1	 1	 0	 115	 2	 1.06	 0.94;
	 36	 2	 514.8	 82.7	 0	 0	 1	 1	 0	 115	 2	 1.06	 0.94;
	 37	 1	 57.9	 5.1	 0	 0	 1	 1	 0	 115	 2	 1.06	 0.94;
	 38	 1	 380.8	 37	 0	 0	 1	 1	 0	 230	 2	 1.06	 0.94;
	 39	 1	 0	 0	 0	 0	 1	 1	 0	 230	 2	 1.06	 0.94;
	 40	 1	 0	 0	 0	 0	 1	 1	 0	 230	 2	 1.06	 0.94;
	 41	 1	 0	 0	 0	 0	 1	 1	 0	 230	 2	 1.06	 0.94;
	 42	 1	 0	 0	 0	 0	 1	 1	 0	 230	 2	 1.06	 0.94;
	 43	 1	 0	 0	 0	 0	 1	 1	 0	 230	 2	 1.06	 0.94;
	 44	 1	 0	 0	 0	 0	 1	 1	 0	 230	 2	 1.06	 0.94;
	 45	 1	 0	 0	 0	 0	 1	 1	 0	 230	 2	 1.06	 0.94;
	 46	 1	 169.2	 41.6	 0	 0	 1	 1	 0	 230	 2	 1.06	 0.94;
	 47	 1	 55.2	 18.2	 0	 0	 1	 1	 0	 230	 2	 1.06	 0.94;
	 48	 1	 273.6	 99.8	 0	 0	 1	 1	 0	 230	 2	 1.06	 0.94;
	 49	 2	 1019.2	 135.2	 0	 0	 1	 1	 0	 230	 2	 1.06	 0.94;
	 50	 1	 595	 83.3	 0	 0	 1	 1	 0	 115	 2	 1.06	 0.94;
	 51	 1	 387.7	 114.7	 0	 0	 1	 1	 0	 230	 2	 1.06	 0.94;
	 52	 2	 145	 58	 0	 0	 1	 1	 0	 230	 2	 1.06	 0.94;
	 53	 1	 56.5	 24.5	 0	 0	 1	 1	 0	 230	 2	 1.06	 0.94;
	 54	 2	 89.5	 35.5	 0	 0	 1	 1	 0	 230	 2	 1.06	 0.94;
	 55	 1	 0	 0	 0	 0	 1	 1	 0	 230	 2	 1.06	 0.94;
	 56	 1	 24	 14	 0	 0	 1	 1	 0	 230	 2	 1.06	 0.94;
	 57	 2	 0	 0	 0	 0	 1	 1	 0	 230	 2	 1.06	 0.94;
	 58	 2	 0	 0	 0	 0	 1	 1	 0	 230	 2	 1.06	 0.94;
	 59	 1	 63	 25	 0	 0	 1	 1	 0	 230	 2	 1.06	 0.94;
	 60	 2	 0	 0	 0	 0	 1	 1	 0	 230	 2	 1.06	 0.94;
	 61	 1	 0	 0	 0	 0	 1	 1	 0	 230	 2	 1.06	 0.94;
	 62	 1	 0	 0	 0	 0	 1	 1	 0	 230	 2	 1.06	 0.94;
	 63	 2	 17	 9	 0	 0	 1	 1	 0	 230	 2	 1.06	 0.94;
	 64	 2	 0	 0	 0	 0	 1	 1	 0	 230	 2	 1.06	 0.94;
	 65	 1	 70	 5	 0	 34.5	 1	 1	 0	 115	 2	 1.06	 0.94;
	 66	 1	 200	 50	 0	 0	 1	 1	 0	 230	 2	 1.06	 0.94;
	 67	 2	 75	 50	 0	 0	 1	 1	 0	 115	 2	 1.06	 0.94;
	 68	 1	 123.5	-24.3	 0	 0	 1	 1	 0	 230	 2	 1.06	 0.94;
	 69	 1	 0	 0	 0	 0	 1	 1	 0	 230	 2	 1.06	 0.94;
	 70	 1	 33	 16.5	 0	 0	 1	 1	 0	 230	 2	 1.06	 0.94;
	 71	 1	 0	 0	 0	 0	 1	 1	 0	 230	 2	 1.06	 0.94;
	 72	 1	 35	 15	 0	 0	 1	 1	 0	 230	 2	 1.06	 0.94;
	 73	 1	 85	 24	 0	 0	 1	 1	 0	 230	 2	 1.06	 0.94;
	 74	 1	 0	 0.4	 0	 0	 1	 1	 0	 230	 2	 1.06	 0.94;
	 75	 1	 0	 0	 0	-212	 1	 1	 0	 230	 2	 1.06	 0.94;
	 76	 1	 0	 0	 0	 0	 1	 1	 0	 230	 2	 1.06	 0.94;
	 77	 1	 0	 0	 0	-103	 1	 1	 0	 230	 2	 1.06	 0.94;
	 78	 1	 299.9	 95.7	 0	 0	 1	 1	 0	 230	 2	 1.06	 0.94;
	 79	 1	 0	 0	 0	 0	 1	 1	 0	 230	 2	 1.06	 0.94;
	 80	 1	 0	 0	 0	 0	 1	 1	 0	 230	 2	 1.06	 0.94;
	 81	 2	 481.8	 205	 0	 0	 1	 1	 0	 115	 2	 1.06	 0.94;
	 82	 2	 763.6	 291.1	 0	 0	 1	 1	 0	 115	 2	 1.06	 0.94;
	 83	 1	 26.5	 0	 0	 0	 1	 1	 0	 115	 2	 1.06	 0.94;
	 84	 1	 163.5	 43	 0	 53	 1	 1	 0	 115	 2	 1.06	 0.94;
	 85	 1	 0	 0	 0	 0	 1	 1	 0	 115	 2	 1.06	 0.94;
	 86	 1	 176	 83	 0	 0	 1	 1	 0	 115	 2	 1.06	 0.94;
	 87	 2	 5	 4	 0	 0	 1	 1	 0	 115	 2	 1.06	 0.94;
	 88	 2	 28	 12	 0	 0	 1	 1	 0	 115	 2	 1.06	 0.94;
	 89	 1	 427.4	 173.6	 0	 0	 1	 1	 0	 115	 2	 1.06	 0.94;
	 90	 1	 74	 29	 0	 45	 1	 1	 0	 115	 2	 1.06	 0.94;
	 91	 1	 69.5	 49.3	 0	 0	 1	 1	 0	 115	 2	 1.06	 0.94;
	 92	 1	 73.4	 0	 0	 0	 1	 1	 0	 230	 2	 1.06	 0.94;
	 93	 1	 240.7	 89	 0	 0	 1	 1	 0	 230	 2	 1.06	 0.94;
	 94	 1	 40	 4	 0	 0	 1	 1	 0	 115	 2	 1.06	 0.94;
	 95	 1	 136.8	 16.6	 0	 0	 1	 1	 0	 230	 2	 1.06	 0.94;
	 96	 2	 0	 0	 0	 0	 1	 1	 0	 230	 2	 1.06	 0.94;
	 97	 2	 59.8	 24.3	 0	 0	 1	 1	 0	 230	 2	 1.06	 0.94;
	 98	 2	 59.8	 24.3	 0	 0	 1	 1	 0	 230	 2	 1.06	 0.94;
	 99	 1	 182.6	 43.6	 0	 0	 1	 1	 0	 230	 2	 1.06	 0.94;
	 100	 1	 115.8	-24	 0	 0	 1	 1	 0	 230	 1	 1.06	 0.94;
	 101	 1	 2.4	-12.6	 0	 0	 1	 1	 0	 115	 1	 1.06	 0.94;
	 102	 1	 100.31	 29.17	 0	 0	 1	 1	 0	 86	 2	 1.06	 0.94;
	 103	 1	-100	 34.17	 0	 0	 1	 1	 0	 86	 2	 1.06	 0.94;
	 104	 1	 0	 0	 0	 0	 1	 1	 0	 115	 2	 1.06	 0.94;
	 105	 2	 0	 0	 0	 0	 1	 1	 0	 13.8	 1	 1.06	 0.94;
	 106	 2	 0	 0	 0	 0	 1	 1	 0	 13.8	 1	 1.06	 0.94;
	 107	 2	 0	 0	 0	 0	 1	 1	 0	 13.8	 1	 1.06	 0.94;
	 108	 2	 0	 0	 0	 0	 1	 1	 0	 13.8	 1	 1.06	 0.94;
	 109	 2	 0	 0	 0	 0	 1	 1	 0	 13.8	 1	 1.06	 0.94;
	 110	 2	 0	 0	 0	 0	 1	 1	 0	 13.8	 1	 1.06	 0.94;
	 111	 2	 0	 0	 0	 0	 1	 1	 0	 13.8	 1	 1.06	 0.94;
	 112	 2	 0	 0	 0	 0	 1	 1	 0	 13.8	 1	 1.06	 0.94;
	 113	 2	 0	 0	 0	 0	 1	 1	 0	 13.8	 1	 1.06	 0.94;
	 114	 2	 0	 0	 0	 0	 1	 1	 0	 13.8	 2	 1.06	 0.94;
	 115	 2	 0	 0	 0	 0	 1	 1	 0	 13.8	 2	 1.06	 0.94;
	 116	 2	 0	 0	 0	 0	 1	 1	 0	 13.8	 2	 1.06	 0.94;
];

mpc_regionR2.gen = [
%	bus         Pg          Qg          Qmax        Qmin        Vg          mBase       status      Pmax        Pmin        Pc1         Pc2         Qc1min      Qc1max      Qc2min      Qc2max      ramp_agc    ramp_10     ramp_30     ramp_q      apf         
	 7	 0	 0	 10	-10	 1	 100	 1	 0	 0;
	 9	 0	 0	 20	-20	 1	 100	 1	 0	 0;
	 14	 0	 0	 20	-20	 1	 100	 1	 0	 0;
	 30	 1020.5	 260.5	 1021	-500	 1	 100	 1	 2041	 0;
	 35	 160.5	 30	 120	-60	 1	 100	 1	 321	 0;
	 36	 0	 87.5	 200	-25	 1	 100	 1	 0	 0;
	 49	 0	 112.5	 350	-125	 1	 100	 1	 0	 0;
	 52	 148.5	 12.5	 75	-50	 1	 100	 1	 297	 0;
	 54	 400	 100	 300	-100	 1	 100	 1	 800	 0;
	 57	 45.5	 10	 35	-15	 1	 100	 1	 91	 0;
	 58	 160	 25	 100	-50	 1	 100	 1	 320	 0;
	 60	 138.5	 12.5	 50	-25	 1	 100	 1	 277	 0;
	 63	 303	 62.5	 175	-50	 1	 100	 1	 606	 0;
	 64	 121	 20	 90	-50	 1	 100	 1	 242	 0;
	 67	 0	 2.5	 15	-10	 1	 100	 1	 0	 0;
	 81	 165	 25	 90	-40	 1	 100	 1	 330	 0;
	 82	 0	 50	 150	-50	 1	 100	 1	 0	 0;
	 87	 139	 22.5	 90	-45	 1	 100	 1	 278	 0;
	 88	 62.5	 10	 35	-15	 1	 100	 1	 125	 0;
	 96	 125	 15	 80	-50	 1	 100	 1	 250	 0;
	 97	 1232.5	 150	 400	-100	 1	 100	 1	 2465	 0;
	 98	 812	 150	 400	-100	 1	 100	 1	 1624	 0;
	 105	 284	 0	 210	-210	 1	 100	 1	 568	 0;
	 106	 335	 0	 280	-280	 1	 100	 1	 670	 0;
	 107	 700.5	 0	 420	-420	 1	 100	 1	 1401	 0;
	 108	 334	 0	 100	-100	 1	 100	 1	 668	 0;
	 109	 313	 0	 224	-224	 1	 100	 1	 626	 0;
	 110	 110	 55	 110	 0	 1	 100	 1	 220	 0;
	 111	 271.5	 0	 224	-224	 1	 100	 1	 543	 0;
	 112	 878.5	 0	 150	-150	 1	 100	 1	 1757	 0;
	 113	 284	 75	 150	 0	 1	 100	 1	 568	 0;
	 114	 863	 250	 600	-100	 1	 100	 1	 1726	 0;
	 115	 1012.5	 100	 325	-125	 1	 100	 1	 2025	 0;
	 116	 312	 50	 300	-200	 1	 100	 1	 624	 0;
];

mpc_regionR2.branch = [
%	fbus        tbus        r           x           b           rateA       rateB       rateC       ratio       angle       status      angmin      angmax      
	 1	 4	 0.001	 0.006	 0	 4823	 4823	 4823	 0	 0	 1	-30	 30;
	 2	 5	 0.001	 0.009	 0	 3240	 3240	 3240	 0	 0	 1	-30	 30;
	 2	 7	 0.006	 0.027	 0.054	 1061	 1061	 1061	 0	 0	 1	-30	 30;
	 3	 6	 0	 0.003	 0	 9778	 9778	 9778	 0	 0	 1	-30	 30;
	 3	 13	 0.008	 0.069	 0.139	 423	 423	 423	 0	 0	 1	-30	 30;
	 3	 61	 0.001	 0.007	 0	 4149	 4149	 4149	 0	 0	 1	-30	 30;
	 4	 8	 0.006	 0.029	 0.018	 991	 991	 991	 0	 0	 1	-30	 30;
	 6	 11	 0.001	 0.009	 0.07	 3240	 3240	 3240	 0	 0	 1	-30	 30;
	 6	 42	 0.001	 0.007	 0.014	 4149	 4149	 4149	 0	 0	 1	-30	 30;
	 7	 10	 0.013	 0.0595	 0.033	 482	 482	 482	 0	 0	 1	-30	 30;
	 8	 10	 0.006	 0.027	 0.013	 1061	 1061	 1061	 0	 0	 1	-30	 30;
	 10	 12	 0.008	 0.034	 0.018	 840	 840	 840	 0	 0	 1	-30	 30;
	 11	 15	 0.002	 0.015	 0.118	 1939	 1939	 1939	 0	 0	 1	-30	 30;
	 12	 14	 0.006	 0.034	 0.016	 850	 850	 850	 0	 0	 1	-30	 30;
	 13	 15	 0.002	 0.018	 0.036	 1620	 1620	 1620	 0	 0	 1	-30	 30;
	 14	 16	 0.016	 0.033	 0.015	 800	 800	 800	 0	 0	 1	-30	 30;
	 14	 21	 0.069	 0.186	 0.098	 148	 148	 148	 0	 0	 1	-30	 30;
	 15	 18	 0.004	 0.034	 0.28	 857	 857	 857	 0	 0	 1	-30	 30;
	 16	 17	 0.052	 0.111	 0.05	 240	 240	 240	 0	 0	 1	-30	 30;
	 17	 19	 0.019	 0.039	 0.018	 677	 677	 677	 0	 0	 1	-30	 30;
	 18	 100	 0.007	 0.068	 0.134	 430	 430	 430	 0	 0	 1	-30	 30;
	 19	 20	 0.036	 0.071	 0.034	 369	 369	 369	 0	 0	 1	-30	 30;
	 20	 21	 0.045	 0.12	 0.065	 229	 229	 229	 0	 0	 1	-30	 30;
	 20	 101	 0.043	 0.13	 0.014	 215	 215	 215	 0	 0	 1	-30	 30;
	 22	 23	 0.002	 0.013	 0.015	 2231	 2231	 2231	 0	 0	 1	-30	 30;
	 24	 25	 0.016	 0.105	 0.203	 277	 277	 277	 0	 0	 1	-30	 30;
	 24	 55	 0.001	 0.007	 0.013	 4149	 4149	 4149	 0	 0	 1	-30	 30;
	 26	 33	 0.0036	 0.0199	 0.004	 1451	 1451	 1451	 0	 0	 1	-30	 30;
	 27	 31	 0.002	 0.1049	 0.001	 280	 280	 280	 0	 0	 1	-30	 30;
	 28	 29	 0.0001	 0.0018	 0.017	 9900	 16271	 16271	 0	 0	 1	-30	 30;
	 29	 30	 0	 0.0271	 0	 1083	 1083	 1083	 0	 0	 1	-30	 30;
	 29	 104	 0	 0.6163	 0	 48	 48	 48	 0	 0	 1	-30	 30;
	 104	 31	 0	-0.3697	 0	 80	 80	 80	 0	 0	 1	-30	 30;
	 29	 32	 0.0022	 0.2915	 0	 101	 101	 101	 0	 0	 1	-30	 30;
	 30	 31	 0	 0.0339	 0	 866	 866	 866	 0	 0	 1	-30	 30;
	 30	 32	 0	 0.0582	 0	 504	 504	 504	 0	 0	 1	-30	 30;
	 33	 34	 0.0808	 0.2344	 0.029	 119	 119	 119	 0	 0	 1	-30	 30;
	 33	 36	 0.0965	 0.3669	 0.054	 78	 78	 78	 0	 0	 1	-30	 30;
	 34	 35	 0.036	 0.1076	 0.117	 259	 259	 259	 0	 0	 1	-30	 30;
	 34	 36	 0.0476	 0.1414	 0.149	 197	 197	 197	 0	 0	 1	-30	 30;
	 36	 37	 0.0006	 0.0197	 0	 1489	 1489	 1489	 0	 0	 1	-30	 30;
	 37	 38	 0.0059	 0.0405	 0.25	 717	 717	 717	 1	 0	 1	-30	 30;
	 37	 40	 0.0115	 0.1106	 0.185	 264	 264	 264	 1	 0	 1	-30	 30;
	 37	 43	 0.0198	 0.1688	 0.321	 173	 173	 173	 1	 0	 1	-30	 30;
	 37	 68	 0.005	 0.05	 0.33	 584	 584	 584	 1	 0	 1	-30	 30;
	 37	 69	 0.0077	 0.0538	 0.335	 540	 540	 540	 1	 0	 1	-30	 30;
	 37	 80	 0.0165	 0.1157	 0.171	 251	 251	 251	 1	 0	 1	-30	 30;
	 38	 39	 0.0059	 0.0577	 0.095	 506	 506	 506	 0	 0	 1	-30	 30;
	 38	 45	 0.0049	 0.0336	 0.208	 864	 864	 864	 0	 0	 1	-30	 30;
	 38	 79	 0.0059	 0.0577	 0.095	 506	 506	 506	 0	 0	 1	-30	 30;
	 39	 41	 0.0078	 0.0773	 0.126	 378	 378	 378	 0	 0	 1	-30	 30;
	 39	 44	 0.0026	 0.0193	 0.03	 1507	 1507	 1507	 0	 0	 1	-30	 30;
	 40	 41	 0.0076	 0.0752	 0.122	 389	 389	 389	 0	 0	 1	-30	 30;
	 40	 44	 0.0021	 0.0186	 0.03	 1568	 1568	 1568	 0	 0	 1	-30	 30;
	 41	 43	 0.0016	 0.0164	 0.026	 1781	 1781	 1781	 0	 0	 1	-30	 30;
	 41	 62	 0.0017	 0.0165	 0.026	 1769	 1769	 1769	 0	 0	 1	-30	 30;
	 41	 78	 0.0079	 0.0793	 0.127	 369	 369	 369	 0	 0	 1	-30	 30;
	 41	 79	 0.0078	 0.0784	 0.125	 373	 373	 373	 0	 0	 1	-30	 30;
	 44	 48	 0.0017	 0.0117	 0.289	 2481	 2481	 2481	 0	 0	 1	-30	 30;
	 44	 79	 0.0026	 0.0193	 0.03	 1507	 1507	 1507	 0	 0	 1	-30	 30;
	 44	 80	 0.0021	 0.0186	 0.03	 1568	 1568	 1568	 0	 0	 1	-30	 30;
	 44	 82	 0.0002	 0.0101	 0	 2904	 2904	 2904	 1	 0	 1	-30	 30;
	 45	 46	 0.0043	 0.0293	 0.18	 991	 991	 991	 0	 0	 1	-30	 30;
	 45	 95	 0.0039	 0.0381	 0.258	 766	 766	 766	 0	 0	 1	-30	 30;
	 46	 47	 0.0091	 0.0623	 0.385	 466	 466	 466	 0	 0	 1	-30	 30;
	 47	 48	 0.0125	 0.089	 0.54	 327	 327	 327	 0	 0	 1	-30	 30;
	 47	 63	 0.0056	 0.039	 0.953	 745	 745	 745	 0	 0	 1	-30	 30;
	 48	 51	 0.0015	 0.0114	 0.284	 2551	 2551	 2551	 0	 0	 1	-30	 30;
	 48	 92	 0.0005	 0.0034	 0.021	 8536	 8536	 8536	 0	 0	 1	-30	 30;
	 48	 97	 0.0007	 0.0151	 0.126	 1941	 1941	 1941	 0	 0	 1	-30	 30;
	 48	 99	 0.0005	 0.0034	 0.021	 8536	 8536	 8536	 0	 0	 1	-30	 30;
	 50	 83	 0.0562	 0.2248	 0.081	 127	 127	 127	 0	 0	 1	-30	 30;
	 51	 52	 0.012	 0.0836	 0.123	 348	 348	 348	 0	 0	 1	-30	 30;
	 51	 53	 0.0152	 0.1132	 0.684	 257	 257	 257	 0	 0	 1	-30	 30;
	 51	 56	 0.0468	 0.3369	 0.519	 87	 87	 87	 0	 0	 1	-30	 30;
	 51	 57	 0.043	 0.3031	 0.463	 96	 96	 96	 0	 0	 1	-30	 30;
	 51	 58	 0.0489	 0.3492	 0.538	 84	 84	 84	 0	 0	 1	-30	 30;
	 51	 93	 0.0013	 0.0089	 0.119	 3262	 3262	 3262	 0	 0	 1	-30	 30;
	 52	 57	 0.0291	 0.2267	 0.342	 129	 129	 129	 0	 0	 1	-30	 30;
	 53	 54	 0.006	 0.057	 0.767	 512	 512	 512	 0	 0	 1	-30	 30;
	 54	 56	 0.0075	 0.0773	 0.119	 378	 378	 378	 0	 0	 1	-30	 30;
	 54	 60	 0.0127	 0.0909	 0.135	 320	 320	 320	 0	 0	 1	-30	 30;
	 56	 57	 0.0085	 0.0588	 0.087	 494	 494	 494	 0	 0	 1	-30	 30;
	 56	 60	 0.0218	 0.1511	 0.223	 193	 193	 193	 0	 0	 1	-30	 30;
	 57	 58	 0.0073	 0.0504	 0.074	 576	 576	 576	 0	 0	 1	-30	 30;
	 59	 89	 0.0523	 0.1526	 0.074	 182	 182	 182	 1	 0	 1	-30	 30;
	 59	 90	 0.1371	 0.3919	 0.076	 71	 71	 71	 1	 0	 1	-30	 30;
	 63	 64	 0.0137	 0.0957	 0.141	 304	 304	 304	 0	 0	 1	-30	 30;
	 64	 72	 0.0055	 0.0288	 0.19	 1001	 1001	 1001	 0	 0	 1	-30	 30;
	 65	 67	 0.1746	 0.3161	 0.04	 82	 82	 82	 0	 0	 1	-30	 30;
	 65	 94	 0.0804	 0.3054	 0.045	 93	 93	 93	 0	 0	 1	-30	 30;
	 66	 72	 0.011	 0.0568	 0.388	 507	 507	 507	 0	 0	 1	-30	 30;
	 68	 70	 0.0008	 0.0098	 0.069	 2984	 2984	 2984	 0	 0	 1	-30	 30;
	 69	 70	 0.0029	 0.0285	 0.19	 1024	 1024	 1024	 0	 0	 1	-30	 30;
	 69	 71	 0.0066	 0.0448	 0.277	 648	 648	 648	 0	 0	 1	-30	 30;
	 73	 75	 0.0024	 0.0326	 0.236	 898	 898	 898	 0	 0	 1	-30	 30;
	 73	 76	 0.0018	 0.0245	 1.662	 1195	 1195	 1195	 0	 0	 1	-30	 30;
	 74	 75	 0.0044	 0.0514	 3.597	 569	 569	 569	 0	 0	 1	-30	 30;
	 76	 77	 0.0002	 0.0123	 0	 2385	 2385	 2385	 0	 0	 1	-30	 30;
	 78	 80	 0.0018	 0.0178	 0.029	 1640	 1640	 1640	 0	 0	 1	-30	 30;
	 83	 84	 0.0669	 0.4843	 0.063	 60	 60	 60	 0	 0	 1	-30	 30;
	 83	 85	 0.0558	 0.221	 0.031	 129	 129	 129	 0	 0	 1	-30	 30;
	 84	 85	 0.0807	 0.3331	 0.049	 86	 86	 86	 0	 0	 1	-30	 30;
	 84	 86	 0.0739	 0.3071	 0.043	 93	 93	 93	 0	 0	 1	-30	 30;
	 84	 87	 0.1799	 0.5017	 0.069	 56	 56	 56	 0	 0	 1	-30	 30;
	 86	 87	 0.0904	 0.3626	 0.048	 79	 79	 79	 0	 0	 1	-30	 30;
	 86	 90	 0.077	 0.3092	 0.054	 93	 93	 93	 0	 0	 1	-30	 30;
	 87	 88	 0.0251	 0.0829	 0.047	 339	 339	 339	 0	 0	 1	-30	 30;
	 88	 89	 0.0222	 0.0847	 0.05	 335	 335	 335	 0	 0	 1	-30	 30;
	 89	 90	 0.0498	 0.1855	 0.029	 153	 153	 153	 0	 0	 1	-30	 30;
	 89	 91	 0.0061	 0.029	 0.084	 990	 990	 990	 0	 0	 1	-30	 30;
	 92	 49	 0.0004	 0.0202	 0	 1452	 1452	 1452	 0	 0	 1	-30	 30;
	 92	 98	 0.0004	 0.0083	 0.115	 3530	 3530	 3530	 0	 0	 1	-30	 30;
	 95	 96	 0.0025	 0.0245	 0.164	 1192	 1192	 1192	 0	 0	 1	-30	 30;
	 97	 99	 0.0007	 0.0086	 0.115	 3400	 3400	 3400	 0	 0	 1	-30	 30;
	 98	 99	 0.0007	 0.0086	 0.115	 3400	 3400	 3400	 0	 0	 1	-30	 30;
	 99	 49	 0.0004	 0.0202	 0	 1452	 1452	 1452	 0	 0	 1	-30	 30;
	 3	 1	 0	 0.052	 0	 565	 565	 565	 0.947	 0	 1	-30	 30;
	 3	 2	 0	 0.052	 0	 565	 565	 565	 0.956	 0	 1	-30	 30;
	 6	 4	 0	 0.039	 0	 753	 753	 753	 0.948	 0	 1	-30	 30;
	 6	 5	 0	 0.039	 0	 753	 753	 753	 0.959	 0	 1	-30	 30;
	 9	 10	 0	 0.089	 0	 330	 330	 330	 1.046	 0	 1	-30	 30;
	 11	 9	 0	 0.053	 0	 554	 554	 554	 0.985	 0	 1	-30	 30;
	 15	 14	 0	 0.014	 0	 2096	 2096	 2096	 0.952	 0	 1	-30	 30;
	 18	 17	 0	 0.064	 0	 459	 459	 459	 0.943	 0	 1	-30	 30;
	 24	 23	 0	 0.059	 0	 498	 498	 498	 0.975	 0	 1	-30	 30;
	 27	 35	 0.0052	 0.0174	 0	 1616	 1616	 1616	 1.01	 0	 1	-30	 30;
	 32	 26	 0	 0.028	 0	 1048	 1048	 1048	 1.05	 0	 1	-30	 30;
	 33	 68	 0.0005	 0.0195	 0	 1504	 1504	 1504	 1	 0	 1	-30	 30;
	 41	 42	 0	 0.018	 0	 1630	 1630	 1630	 1.0522	 0	 1	-30	 30;
	 41	 61	 0	 0.014	 0	 2096	 2096	 2096	 1.0522	 0	 1	-30	 30;
	 43	 81	 0.001	 0.0402	 0	 730	 730	 730	 1.05	 0	 1	-30	 30;
	 52	 85	 0.0024	 0.0603	 0	 487	 487	 487	 0.975	 0	 1	-30	 30;
	 53	 86	 0.0024	 0.0498	-0.087	 589	 589	 589	 1	 0	 1	-30	 30;
	 54	 55	 0	 0.0833	 0	 353	 353	 353	 1.035	 0	 1	-30	 30;
	 54	 59	 0.0013	 0.0371	 0	 791	 791	 791	 0.9565	 0	 1	-30	 30;
	 56	 91	 0.0005	 0.0182	 0	 1612	 1612	 1612	 1	 0	 1	-30	 30;
	 62	 81	 0.001	 0.0392	 0	 749	 749	 749	 1.05	 0	 1	-30	 30;
	 64	 94	 0.0027	 0.0639	 0	 459	 459	 459	 1.073	 0	 1	-30	 30;
	 66	 67	 0.0008	 0.0256	 0	 1146	 1146	 1146	 1.05	 0	 1	-30	 30;
	 70	 28	 0	 0.016	 0	 1834	 1834	 1834	 1.0506	 0	 1	-30	 30;
	 71	 35	 0.0012	 0.0396	 0	 741	 741	 741	 0.975	 0	 1	-30	 30;
	 74	 48	 0.0013	 0.0384	-0.057	 764	 764	 764	 0.98	 0	 1	-30	 30;
	 75	 66	 0.0009	 0.0231	-0.033	 1269	 1269	 1269	 0.956	 0	 1	-30	 30;
	 93	 50	 0.0003	 0.0131	 0	 2239	 2239	 2239	 1.05	 0	 1	-30	 30;
	 30	 102	 0.001	 0.023	 0	 1275	 1275	 1275	 1.0223	 0	 1	-30	 30;
	 31	 103	 0	 0.023	 0	 1276	 1276	 1276	 0.9284	 0	 1	-30	 30;
	 106	 2	 0.001	 0.0146	 0	 2005	 2005	 2005	 1	 0	 1	-30	 30;
	 107	 3	 0	 0.01054	 0	 2783	 2783	 2783	 1	 0	 1	-30	 30;
	 112	 23	 0	 0.0238	 0	 1233	 1233	 1233	 1	 0	 1	-30	 30;
	 113	 24	 0	 0.03214	 0	 913	 913	 913	 0.95	 0	 1	-30	 30;
	 116	 77	 0	 0.0154	 0	 1905	 1905	 1905	 1	 0	 1	-30	 30;
	 111	 18	 0	 0.0289	 0	 1015	 1015	 1015	 1	 0	 1	-30	 30;
	 105	 1	 0	 0.01953	 0	 1502	 1502	 1502	 1	 0	 1	-30	 30;
	 114	 41	 0	 0.0193	 0	 1520	 1520	 1520	 1	 0	 1	-30	 30;
	 108	 10	 0	 0.01923	 0	 1526	 1526	 1526	 1	 0	 1	-30	 30;
	 110	 17	 0	 0.023	 0	 1276	 1276	 1276	 1	 0	 1	-30	 30;
	 115	 50	 0	 0.0167	 0	 1757	 1757	 1757	 1	 0	 1	-30	 30;
	 109	 11	 0	 0.0312	 0	 941	 941	 941	 1	 0	 1	-30	 30;
];

mpc_regionR2.gencost = [
%	2           startup     shutdown    n           c(n-1)...c0 
	 2	 0	 0	 3	 0	 0	 0;
	 2	 0	 0	 3	 0	 0	 0;
	 2	 0	 0	 3	 0	 0	 0;
	 2	 0	 0	 3	 0	 7.698908	 0;
	 2	 0	 0	 3	 0	 26.754128	 0;
	 2	 0	 0	 3	 0	 0	 0;
	 2	 0	 0	 3	 0	 0	 0;
	 2	 0	 0	 3	 0	 30.597916	 0;
	 2	 0	 0	 3	 0	 30.758666	 0;
	 2	 0	 0	 3	 0	 19.292281	 0;
	 2	 0	 0	 3	 0	 49.861855	 0;
	 2	 0	 0	 3	 0	 35.842363	 0;
	 2	 0	 0	 3	 0	 34.955965	 0;
	 2	 0	 0	 3	 0	 22.762722	 0;
	 2	 0	 0	 3	 0	 0	 0;
	 2	 0	 0	 3	 0	 35.375974	 0;
	 2	 0	 0	 3	 0	 0	 0;
	 2	 0	 0	 3	 0	 33.868524	 0;
	 2	 0	 0	 3	 0	 29.031265	 0;
	 2	 0	 0	 3	 0	 28.391517	 0;
	 2	 0	 0	 3	 0	 1.000203	 0;
	 2	 0	 0	 3	 0	 27.278538	 0;
	 2	 0	 0	 3	 0	 38.274878	 0;
	 2	 0	 0	 3	 0	 23.466762	 0;
	 2	 0	 0	 3	 0	 7.509959	 0;
	 2	 0	 0	 3	 0	 26.682965	 0;
	 2	 0	 0	 3	 0	 28.434868	 0;
	 2	 0	 0	 3	 0	 51.062397	 0;
	 2	 0	 0	 3	 0	 29.992015	 0;
	 2	 0	 0	 3	 0	 20.811515	 0;
	 2	 0	 0	 3	 0	 26.50789	 0;
	 2	 0	 0	 3	 0	 29.759924	 0;
	 2	 0	 0	 3	 0	 36.179055	 0;
	 2	 0	 0	 3	 0	 36.908367	 0;
];


% -------------------- mpc_regionR3 --------------------

mpc_regionR3.version = '2';
mpc_regionR3.baseMVA = 100.0000;
mpc_regionR3.bus = [
%	bus_i       type        Pd          Qd          Gs          Bs          area        Vm          Va          baseKV      zone        Vmax        Vmin        
	 1	 1	 0	 0	 0	 0	 1	 1	 0	 115	 1	 1.06	 0.94;
	 2	 1	 0	 0	 0	 0	 1	 1	 0	 230	 1	 1.06	 0.94;
	 3	 1	 0	 0	 0	 0	 1	 1	 0	 230	 1	 1.06	 0.94;
	 4	 1	 0	 0	 0	 0	 1	 1	 0	 345	 1	 1.06	 0.94;
	 5	 1	 58	 11.8	 0	 0	 1	 1	 0	 115	 1	 1.06	 0.94;
	 6	 1	 0	 0	 0	 0	 1	 1	 0	 230	 1	 1.06	 0.94;
	 7	 1	 0	 0	 0	 0	 1	 1	 0	 115	 1	 1.06	 0.94;
	 8	 1	 56	 20	 0	 0	 1	 1	 0	 115	 1	 1.06	 0.94;
	 9	 1	 116	 38	 0	 0	 1	 1	 0	 115	 1	 1.06	 0.94;
	 10	 1	 57	 19	 0	 0	 1	 1	 0	 115	 1	 1.06	 0.94;
	 11	 1	 224	 71	 0	 0	 1	 1	 0	 115	 1	 1.06	 0.94;
	 12	 1	 0	 0	 0	 0	 1	 1	 0	 230	 1	 1.06	 0.94;
	 13	 2	 208	 107	 0	 0	 1	 1	 0	 115	 1	 1.06	 0.94;
	 14	 1	 74	 28	 0	 0	 1	 1	 0	 115	 1	 1.06	 0.94;
	 15	 1	 0	 0	 0	 0	 1	 1	 0	 115	 1	 1.06	 0.94;
	 16	 1	 48	 14	 0	 0	 1	 1	 0	 115	 1	 1.06	 0.94;
	 17	 1	 28	 7	 0	 0	 1	 1	 0	 115	 1	 1.06	 0.94;
	 18	 1	 0	 0	 0	 0	 1	 1	 0	 345	 1	 1.06	 0.94;
	 19	 2	 37	 13	 0	 0	 1	 1	 0	 115	 1	 1.06	 0.94;
	 20	 1	 0	 0	 0	 0	 1	 1	 0	 230	 1	 1.06	 0.94;
	 21	 1	 26.2	 0	 0	 0	 1	 1	 0	 115	 1	 1.06	 0.94;
	 22	 1	 18.2	 0	 0	 0	 1	 1	 0	 115	 1	 1.06	 0.94;
	 23	 1	 7	 2	 0	 0	 1	 1	 0	 66	 3	 1.06	 0.94;
	 24	 2	 0	 0	 0	-150	 1	 1	 0	 345	 3	 1.06	 0.94;
	 25	 2	 489	 53	 0	 0	 1	 1	 0	 230	 3	 1.06	 0.94;
	 26	 1	 800	 72	 0	 0	 1	 1	 0	 230	 3	 1.06	 0.94;
	 27	 1	 0	 0	 0	 0	 1	 1	 0	 66	 3	 1.06	 0.94;
	 28	 1	 0	 0	 0	 0	 1	 1	 0	 345	 3	 1.06	 0.94;
	 29	 1	 0	 0	 0	 0	 1	 1	 0	 345	 3	 1.06	 0.94;
	 30	 1	 10	 3	 0	 0	 1	 1	 0	 115	 3	 1.06	 0.94;
	 31	 1	 43	 14	 0	 0	 1	 1	 0	 115	 3	 1.06	 0.94;
	 32	 2	 64	 21	 0	 0	 1	 1	 0	 115	 3	 1.06	 0.94;
	 33	 1	 35	 12	 0	 0	 1	 1	 0	 115	 3	 1.06	 0.94;
	 34	 1	 27	 12	 0	 0	 1	 1	 0	 115	 3	 1.06	 0.94;
	 35	 1	 41	 14	 0	 0	 1	 1	 0	 66	 1	 1.06	 0.94;
	 36	 1	 38	 13	 0	 0	 1	 1	 0	 66	 3	 1.06	 0.94;
	 37	 1	 42	 14	 0	 0	 1	 1	 0	 115	 3	 1.06	 0.94;
	 38	 1	 72	 24	 0	 0	 1	 1	 0	 66	 3	 1.06	 0.94;
	 39	 1	 0	-5	 0	 0	 1	 1	 0	 66	 3	 1.06	 0.94;
	 40	 1	 12	 2	 0	 0	 1	 1	 0	 66	 3	 1.06	 0.94;
	 41	 1	-21	-14.2	 0	 0	 1	 1	 0	 66	 1	 1.06	 0.94;
	 42	 1	 7	 2	 0	 0	 1	 1	 0	 66	 3	 1.06	 0.94;
	 43	 1	 38	 13	 0	 0	 1	 1	 0	 66	 3	 1.06	 0.94;
	 44	 1	 0	 0	 0	 0	 1	 1	 0	 115	 3	 1.06	 0.94;
	 45	 1	 96	 7	 0	 0	 1	 1	 0	 115	 3	 1.06	 0.94;
	 46	 1	 0	 0	 0	 0	 1	 1	 0	 138	 3	 1.06	 0.94;
	 47	 2	 0	 0	 0	 0	 1	 1	 0	 16.5	 3	 1.06	 0.94;
	 48	 1	 22	 16	 0	 0	 1	 1	 0	 138	 3	 1.06	 0.94;
	 49	 1	 47	 26	 0	 0	 1	 1	 0	 138	 3	 1.06	 0.94;
	 50	 1	 176	 105	 0	 0	 1	 1	 0	 138	 3	 1.06	 0.94;
	 51	 1	 100	 75	 0	 0	 1	 1	 0	 138	 3	 1.06	 0.94;
	 52	 1	 131	 96	 0	 0	 1	 1	 0	 138	 3	 1.06	 0.94;
	 53	 1	 0	 0	 0	 0	 1	 1	 0	 345	 3	 1.06	 0.94;
	 54	 2	 285	 100	 0	 0	 1	 1	 0	 138	 3	 1.06	 0.94;
	 55	 2	 171	 70	 0	 0	 1	 1	 0	 138	 3	 1.06	 0.94;
	 56	 2	 328	 188	 0	 0	 1	 1	 0	 20	 3	 1.06	 0.94;
	 57	 1	 428	 232	 0	 0	 1	 1	 0	 138	 3	 1.06	 0.94;
	 58	 1	 173	 99	 0	 0	 1	 1	 0	 230	 3	 1.06	 0.94;
	 59	 1	 410	 40	 0	 0	 1	 1	 0	 230	 3	 1.06	 0.94;
	 60	 1	 0	 0	 0	 0	 1	 1	 0	 230	 3	 1.06	 0.94;
	 61	 2	 538	 369	 0	 0	 1	 1	 0	 27	 3	 1.06	 0.94;
	 62	 1	 223	 148	 0	 0	 1	 1	 0	 138	 3	 1.06	 0.94;
	 63	 1	 96	 46	 0	 0	 1	 1	 0	 138	 3	 1.06	 0.94;
	 64	 2	 0	 0	 0	 0	 1	 1	 0	 20	 3	 1.06	 0.94;
	 65	 1	 159	 107	 0	-300	 1	 1	 0	 345	 3	 1.06	 0.94;
	 66	 1	 448	 143	 0	 0	 1	 1	 0	 138	 3	 1.06	 0.94;
	 67	 2	 404	 212	 0	 0	 1	 1	 0	 66	 3	 1.06	 0.94;
	 68	 1	 572	 244	 0	 0	 1	 1	 0	 138	 3	 1.06	 0.94;
	 69	 1	 269	 157	 0	 0	 1	 1	 0	 138	 3	 1.06	 0.94;
	 70	 2	 0	 0	 0	 0	 1	 1	 0	 20	 3	 1.06	 0.94;
	 71	 1	 0	 0	 0	 0	 1	 1	 0	 345	 3	 1.06	 0.94;
	 72	 2	 255	 149	 0	-150	 1	 1	 0	 138	 3	 1.06	 0.94;
	 73	 2	 0	 0	 0	 0	 1	 1	 0	 138	 3	 1.06	 0.94;
	 74	 1	 0	 0	 0	-140	 1	 1	 0	 230	 3	 1.06	 0.94;
	 75	 2	 0	 0	 0	 0	 1	 1	 0	 20	 3	 1.06	 0.94;
	 76	 2	 0	 0	 0	 0	 1	 1	 0	 138	 3	 1.06	 0.94;
	 77	 2	 8	 3	 0	 0	 1	 1	 0	 66	 3	 1.06	 0.94;
	 78	 1	 0	 0	 0	 0	 1	 1	 0	 66	 3	 1.06	 0.94;
	 79	 1	 61	 30	 0	 0	 1	 1	 0	 66	 3	 1.06	 0.94;
	 80	 1	 77	 33	 0	 0	 1	 1	 0	 66	 3	 1.06	 0.94;
	 81	 1	 61	 30	 0	 0	 1	 1	 0	 66	 3	 1.06	 0.94;
	 82	 1	 29	 14	 0	 45.6	 1	 1	 0	 66	 3	 1.06	 0.94;
	 83	 1	 29	 14	 0	 0	 1	 1	 0	 66	 3	 1.06	 0.94;
	 84	 1	-23	-17	 0	 0	 1	 1	 0	 66	 3	 1.06	 0.94;
	 85	 1	-33.1	-29.4	 0	 0	 1	 1	 0	 230	 3	 1.06	 0.94;
	 86	 1	 28.1	-20.5	 0	 0	 1	 1	 0	 115	 1	 1.06	 0.94;
	 87	 1	 14	 2.5	 0	 0	 1	 1	 0	 115	 1	 1.06	 0.94;
	 88	 1	-11.1	-1.4	 0	 0	 1	 1	 0	 115	 1	 1.06	 0.94;
	 89	 1	 50.5	 17.4	 0	 0	 1	 1	 0	 230	 1	 1.06	 0.94;
	 90	 1	 29.6	 0.6	 0	 0	 1	 1	 0	 115	 1	 1.06	 0.94;
	 91	 1	-113.7	 76.7	 0	 0	 1	 1	 0	 345	 3	 1.06	 0.94;
	 92	 1	 0	 0	 0	 0	 1	 1	 0	 115	 3	 1.06	 0.94;
	 93	 2	 0	 0	 0	 0	 1	 1	 0	 13.8	 1	 1.06	 0.94;
];

mpc_regionR3.gen = [
%	bus         Pg          Qg          Qmax        Qmin        Vg          mBase       status      Pmax        Pmin        Pc1         Pc2         Qc1min      Qc1max      Qc2min      Qc2max      ramp_agc    ramp_10     ramp_30     ramp_q      apf         
	 13	 0	 23.5	 35	 12	 1	 100	 1	 0	 0;
	 19	 724	 0	 240	-240	 1	 100	 1	 1448	 0;
	 24	 257.5	 0	 258	-258	 1	 100	 1	 515	 0;
	 25	 1070	 0	 1000	-1000	 1	 100	 1	 2140	 0;
	 32	 215	 0	 215	-215	 1	 100	 1	 430	 0;
	 47	 144	 0	 144	-144	 1	 100	 1	 288	 0;
	 54	 230	 0	 60	-60	 1	 100	 1	 460	 0;
	 55	 277	 0	 277	-277	 1	 100	 1	 554	 0;
	 56	 261.5	 0	 262	-262	 1	 100	 1	 523	 0;
	 61	 218	 0	 218	-218	 1	 100	 1	 436	 0;
	 64	 229	 0	 229	-229	 1	 100	 1	 458	 0;
	 67	 170.5	 0	 171	-171	 1	 100	 1	 341	 0;
	 70	 440.5	 0	 300	-300	 1	 100	 1	 881	 0;
	 72	 133.5	 0	 134	-134	 1	 100	 1	 267	 0;
	 73	 310.5	 0	 311	-311	 1	 100	 1	 621	 0;
	 75	 563.5	 0	 564	-564	 1	 100	 1	 1127	 0;
	 76	 106	 70	 100	 40	 1	 100	 1	 212	 0;
	 77	 171	 60	 80	 40	 1	 100	 1	 342	 0;
	 93	 101.5	 43.5	 87	 0	 1	 100	 1	 203	 0;
];

mpc_regionR3.branch = [
%	fbus        tbus        r           x           b           rateA       rateB       rateC       ratio       angle       status      angmin      angmax      
	 1	 10	 0.012	 0.06	 0.008	 480	 480	 480	 0	 0	 1	-30	 30;
	 1	 13	 0.006	 0.014	 0.002	 1926	 1926	 1926	 0	 0	 1	-30	 30;
	 1	 14	 0.01	 0.029	 0.003	 957	 957	 957	 0	 0	 1	-30	 30;
	 2	 20	 0.004	 0.027	 0.043	 1075	 1075	 1075	 0	 0	 1	-30	 30;
	 3	 6	 0.007	 0.041	 0.312	 706	 706	 706	 0	 0	 1	-30	 30;
	 3	 12	 0.009	 0.054	 0.411	 536	 536	 536	 0	 0	 1	-30	 30;
	 4	 18	 0.005	 0.042	 0.69	 694	 694	 694	 0	 0	 1	-30	 30;
	 5	 11	 0.052	 0.145	 0.073	 191	 191	 191	 0	 0	 1	-30	 30;
	 5	 21	 0.043	 0.118	 0.013	 234	 234	 234	 0	 0	 1	-30	 30;
	 7	 45	 0.051	 0.232	 0.028	 124	 124	 124	 0	 0	 1	-30	 30;
	 7	 16	 0.051	 0.157	 0.023	 178	 178	 178	 0	 0	 1	-30	 30;
	 8	 9	 0.032	 0.1	 0.062	 280	 280	 280	 0	 0	 1	-30	 30;
	 8	 86	 0.02	 0.1234	 0.028	 235	 235	 235	 0	 0	 1	-30	 30;
	 9	 10	 0.036	 0.131	 0.068	 216	 216	 216	 0	 0	 1	-30	 30;
	 9	 11	 0.034	 0.099	 0.047	 281	 281	 281	 0	 0	 1	-30	 30;
	 10	 14	 0.018	 0.087	 0.011	 331	 331	 331	 0	 0	 1	-30	 30;
	 10	 87	 0.0256	 0.193	 0	 151	 151	 151	 0	 0	 1	-30	 30;
	 11	 13	 0.021	 0.057	 0.03	 483	 483	 483	 0	 0	 1	-30	 30;
	 11	 16	 0.018	 0.052	 0.018	 534	 534	 534	 0	 0	 1	-30	 30;
	 12	 20	 0.004	 0.027	 0.05	 1075	 1075	 1075	 0	 0	 1	-30	 30;
	 12	 89	 0.0286	 0.2013	 0.379	 145	 145	 145	 0	 0	 1	-30	 30;
	 13	 14	 0.016	 0.043	 0.004	 640	 640	 640	 0	 0	 1	-30	 30;
	 14	 15	 0.001	 0.006	 0.007	 4823	 4823	 4823	 0	 0	 1	-30	 30;
	 14	 17	 0.014	 0.07	 0.038	 411	 411	 411	 0	 0	 1	-30	 30;
	 14	 88	 0.0891	 0.2676	 0.029	 104	 104	 104	 0	 0	 1	-30	 30;
	 14	 90	 0.0782	 0.2127	 0.022	 130	 130	 130	 0	 0	 1	-30	 30;
	 15	 16	 0.006	 0.022	 0.011	 1287	 1287	 1287	 0	 0	 1	-30	 30;
	 15	 19	 0	 0.036	 0	 815	 815	 815	 0	 0	 1	-30	 30;
	 16	 45	 0.099	 0.375	 0.051	 76	 76	 76	 0	 0	 1	-30	 30;
	 17	 45	 0.022	 0.107	 0.058	 269	 269	 269	 0	 0	 1	-30	 30;
	 18	 28	 0.0035	 0.033	 0.53	 884	 884	 884	 0	 0	 1	-30	 30;
	 18	 29	 0.0035	 0.033	 0.53	 884	 884	 884	 0	 0	 1	-30	 30;
	 23	 42	 0.033	 0.095	 0	 292	 292	 292	 0	 0	 1	-30	 30;
	 23	 43	 0.046	 0.069	 0	 354	 354	 354	 0	 0	 1	-30	 30;
	 24	 65	 0.0004	 0.0022	 6.2	 9900	 13118	 13118	 0	 0	 1	-30	 30;
	 24	 74	 0	 0.0275	 0	 1067	 1067	 1067	 1	 0	 1	-30	 30;
	 25	 26	 0.003	 0.048	 0	 610	 610	 610	 0	 0	 1	-30	 30;
	 26	 59	 0.002	 0.009	 0	 3182	 3182	 3182	 0	 0	 1	-30	 30;
	 27	 39	 0.045	 0.063	 0	 379	 379	 379	 0	 0	 1	-30	 30;
	 27	 42	 0.048	 0.127	 0	 217	 217	 217	 0	 0	 1	-30	 30;
	 28	 53	 0.0031	 0.0286	 0.5	 1020	 1020	 1020	 0	 0	 1	-30	 30;
	 28	 91	 0.0024	 0.0355	 0.36	 825	 825	 825	 0	 0	 1	-30	 30;
	 29	 53	 0.0031	 0.0286	 0.5	 1020	 1020	 1020	 0	 0	 1	-30	 30;
	 30	 31	 0.014	 0.04	 0.004	 693	 693	 693	 0	 0	 1	-30	 30;
	 30	 44	 0.03	 0.081	 0.01	 340	 340	 340	 0	 0	 1	-30	 30;
	 31	 32	 0.01	 0.06	 0.009	 483	 483	 483	 0	 0	 1	-30	 30;
	 31	 45	 0.015	 0.04	 0.006	 687	 687	 687	 0	 0	 1	-30	 30;
	 32	 36	 0.332	 0.688	 0	 39	 39	 39	 1	 0	 1	-30	 30;
	 32	 37	 0.009	 0.046	 0.025	 626	 626	 626	 0	 0	 1	-30	 30;
	 32	 44	 0.02	 0.073	 0.008	 388	 388	 388	 0	 0	 1	-30	 30;
	 32	 45	 0.034	 0.109	 0.032	 257	 257	 257	 0	 0	 1	-30	 30;
	 33	 34	 0.076	 0.135	 0.009	 190	 190	 190	 0	 0	 1	-30	 30;
	 33	 44	 0.04	 0.102	 0.005	 268	 268	 268	 0	 0	 1	-30	 30;
	 34	 44	 0.081	 0.128	 0.014	 194	 194	 194	 0	 0	 1	-30	 30;
	 35	 38	 0.124	 0.183	 0	 133	 133	 133	 0	 0	 1	-30	 30;
	 37	 45	 0.01	 0.059	 0.008	 491	 491	 491	 0	 0	 1	-30	 30;
	 38	 39	 0.046	 0.068	 0	 358	 358	 358	 0	 0	 1	-30	 30;
	 39	 40	 0.302	 0.446	 0	 55	 55	 55	 0	 0	 1	-30	 30;
	 40	 41	 0.073	 0.093	 0	 249	 249	 249	 0	 0	 1	-30	 30;
	 40	 42	 0.24	 0.421	 0	 61	 61	 61	 0	 0	 1	-30	 30;
	 46	 49	 0.0139	 0.0778	 0.086	 372	 372	 372	 0	 0	 1	-30	 30;
	 47	 48	 0.0025	 0.038	 0	 771	 771	 771	 1	 0	 1	-30	 30;
	 48	 49	 0.0017	 0.0185	 0.02	 1579	 1579	 1579	 0	 0	 1	-30	 30;
	 48	 76	 0.0015	 0.0108	 0.002	 2691	 2691	 2691	 0	 0	 1	-30	 30;
	 49	 50	 0.0045	 0.0249	 0.026	 1160	 1160	 1160	 0	 0	 1	-30	 30;
	 50	 51	 0.004	 0.0497	 0.018	 589	 589	 589	 0	 0	 1	-30	 30;
	 51	 52	 0	 0.0456	 0	 644	 644	 644	 0	 0	 1	-30	 30;
	 51	 53	 0.0005	 0.0177	 0.02	 1657	 1657	 1657	 1	 0	 1	-30	 30;
	 51	 54	 0.0027	 0.0395	 0.832	 741	 741	 741	 0	 0	 1	-30	 30;
	 53	 71	 0.0003	 0.0018	 5.2	 9900	 16074	 16074	 0	 0	 1	-30	 30;
	 54	 52	 0.0037	 0.0484	 0.43	 605	 605	 605	 0	 0	 1	-30	 30;
	 54	 55	 0.001	 0.0295	 0.503	 994	 994	 994	 0	 0	 1	-30	 30;
	 54	 72	 0.0016	 0.0046	 0.402	 6023	 6023	 6023	 0	 0	 1	-30	 30;
	 55	 57	 0.0003	 0.0013	 1	 9900	 21986	 21986	 0	 0	 1	-30	 30;
	 56	 71	 0.0014	 0.0514	 0.33	 571	 571	 571	 1	 0	 1	-30	 30;
	 58	 59	 0.01	 0.064	 0.48	 453	 453	 453	 0	 0	 1	-30	 30;
	 58	 60	 0.0019	 0.0081	 0.86	 3526	 3526	 3526	 0	 0	 1	-30	 30;
	 59	 25	 0.001	 0.061	 0	 481	 481	 481	 0	 0	 1	-30	 30;
	 60	 65	 0.0005	 0.0212	 0	 1384	 1384	 1384	 1	 0	 1	-30	 30;
	 61	 65	 0.0009	 0.0472	 0.186	 622	 622	 622	 1	 0	 1	-30	 30;
	 62	 63	 0.0019	 0.0087	 1.28	 3294	 3294	 3294	 0	 0	 1	-30	 30;
	 62	 65	 0.0026	 0.0917	 0	 320	 320	 320	 1	 0	 1	-30	 30;
	 62	 68	 0.0013	 0.0288	 0.81	 1018	 1018	 1018	 0	 0	 1	-30	 30;
	 63	 24	 0	 0.0626	 0	 469	 469	 469	 1	 0	 1	-30	 30;
	 65	 66	 0.0002	 0.0069	 1.364	 4250	 4250	 4250	 1	 0	 1	-30	 30;
	 65	 71	 0.0001	 0.0006	 3.57	 9900	 48222	 48222	 0	 0	 1	-30	 30;
	 66	 67	 0.0017	 0.0485	 0	 605	 605	 605	 1	 0	 1	-30	 30;
	 68	 69	 0.0002	 0.0259	 0.144	 1133	 1133	 1133	 0	 0	 1	-30	 30;
	 68	 71	 0.0006	 0.0272	 0	 1079	 1079	 1079	 1	 0	 1	-30	 30;
	 69	 72	 0.0002	 0.0006	 0.8	 9900	 46378	 46378	 0	 0	 1	-30	 30;
	 75	 71	 0.0005	 0.0154	 0	 1904	 1904	 1904	 1	 0	 1	-30	 30;
	 74	 85	 0.0003	 0.0043	 0.009	 6805	 6805	 6805	 0	 0	 1	-30	 30;
	 76	 79	 0.0082	 0.0851	 0	 344	 344	 344	 1	 0	 1	-30	 30;
	 76	 81	 0.0112	 0.0723	 0	 401	 401	 401	 1	 0	 1	-30	 30;
	 77	 78	 0.0127	 0.0355	 0	 778	 778	 778	 0	 0	 1	-30	 30;
	 77	 79	 0.0326	 0.1804	 0	 161	 161	 161	 0	 0	 1	-30	 30;
	 78	 80	 0.0195	 0.0551	 0	 502	 502	 502	 0	 0	 1	-30	 30;
	 79	 80	 0.0157	 0.0732	 0	 392	 392	 392	 0	 0	 1	-30	 30;
	 79	 81	 0.036	 0.2119	 0	 137	 137	 137	 0	 0	 1	-30	 30;
	 80	 81	 0.0268	 0.1285	 0	 224	 224	 224	 0	 0	 1	-30	 30;
	 81	 82	 0.0428	 0.1215	 0	 228	 228	 228	 0	 0	 1	-30	 30;
	 82	 83	 0.0351	 0.1004	 0	 276	 276	 276	 0	 0	 1	-30	 30;
	 83	 84	 0.0616	 0.1857	 0	 150	 150	 150	 0	 0	 1	-30	 30;
	 2	 1	 0	 0.047	 0	 625	 625	 625	 1.01	 0	 1	-30	 30;
	 3	 4	 0	 0.021	 0	 1397	 1397	 1397	 1	 0	 1	-30	 30;
	 11	 12	 0	 0.0244	 0	 1203	 1203	 1203	 1	 0	 1	-30	 30;
	 18	 20	 0	 0.02	 0	 1467	 1467	 1467	 1	 0	 1	-30	 30;
	 22	 41	 0	 0.149	 0	 197	 197	 197	 0.967	 0	 1	-30	 30;
	 23	 44	 0	 0.252	 0	 117	 117	 117	 1.03	 0	 1	-30	 30;
	 27	 30	 0	 0.237	 0	 124	 124	 124	 1.03	 0	 1	-30	 30;
	 29	 46	 0.0008	 0.0366	 0	 802	 802	 802	 0.985	 0	 1	-30	 30;
	 34	 82	 0	 0.22	 0	 134	 134	 134	 1	 0	 1	-30	 30;
	 35	 7	 0	 0.098	 0	 300	 300	 300	 1.03	 0	 1	-30	 30;
	 36	 45	 0	 0.128	 0	 230	 230	 230	 1.01	 0	 1	-30	 30;
	 38	 92	 0.02	 0.204	-0.012	 144	 144	 144	 1.05	 0	 1	-30	 30;
	 43	 32	 0.026	 0.211	 0	 138	 138	 138	 1.03	 0	 1	-30	 30;
	 45	 46	 0.003	 0.0122	 0	 2335	 2335	 2335	 1	 0	 1	-30	 30;
	 52	 53	 0.001	 0.0354	-0.01	 829	 829	 829	 0.97	 0	 1	-30	 30;
	 57	 58	 0.0012	 0.0195	-0.364	 1502	 1502	 1502	 1	 0	 1	-30	 30;
	 63	 64	 0.001	 0.0332	 0	 884	 884	 884	 1.02	 0	 1	-30	 30;
	 68	 70	 0.0005	 0.016	 0	 1833	 1833	 1833	 1.07	 0	 1	-30	 30;
	 72	 73	 0.0005	 0.016	 0	 1833	 1833	 1833	 1.02	 0	 1	-30	 30;
	 30	 92	 0.0001	 0.02	 0	 1467	 1467	 1467	 1	-11.4	 1	-30	 30;
	 93	 9	 0	 0.06896	 0	 426	 426	 426	 0.9565	 0	 1	-30	 30;
];

mpc_regionR3.gencost = [
%	2           startup     shutdown    n           c(n-1)...c0 
	 2	 0	 0	 3	 0	 0	 0;
	 2	 0	 0	 3	 0	 22.409835	 0;
	 2	 0	 0	 3	 0	 49.15571	 0;
	 2	 0	 0	 3	 0	 24.062655	 0;
	 2	 0	 0	 3	 0	 31.016664	 0;
	 2	 0	 0	 3	 0	 49.721799	 0;
	 2	 0	 0	 3	 0	 21.291665	 0;
	 2	 0	 0	 3	 0	 31.437031	 0;
	 2	 0	 0	 3	 0	 50.842869	 0;
	 2	 0	 0	 3	 0	 28.01046	 0;
	 2	 0	 0	 3	 0	 39.828572	 0;
	 2	 0	 0	 3	 0	 35.650779	 0;
	 2	 0	 0	 3	 0	 32.621266	 0;
	 2	 0	 0	 3	 0	 39.657688	 0;
	 2	 0	 0	 3	 0	 41.223312	 0;
	 2	 0	 0	 3	 0	 39.064721	 0;
	 2	 0	 0	 3	 0	 116.939409	 0;
	 2	 0	 0	 3	 0	 34.336562	 0;
	 2	 0	 0	 3	 0	 31.587517	 0;
];


% ---------- Interregional Tie-Line Information ----------
% Each row: {From_Region (string), To_Region (string), Branch_Data (1x13 array)}
% Branch_Data: {fbus, tbus, r, x, b, rateA, rateB, rateC, ratio, angle, status, angmin, angmax}

interregional_tielines_total = {
	{'mpc_regionR2', 'mpc_regionR1', [ 7	 2	 0.013	 0.042	 0.081	 668	 668	 668	 0	 0	 1	-30	 30]},
	{'mpc_regionR2', 'mpc_regionR1', [ 13	 28	 0.013	 0.08	 0.151	 362	 362	 362	 0	 0	 1	-30	 30]},
	{'mpc_regionR1', 'mpc_regionR3', [ 13	 4	 0.002	 0.014	 0.806	 2075	 2075	 2075	 0	 0	 1	-30	 30]},
	{'mpc_regionR1', 'mpc_regionR3', [ 15	 5	 0.027	 0.084	 0.039	 333	 333	 333	 0	 0	 1	-30	 30]},
	{'mpc_regionR1', 'mpc_regionR2', [ 24	 22	 0.009	 0.026	 0.005	 1067	 1067	 1067	 0	 0	 1	-30	 30]},
	{'mpc_regionR3', 'mpc_regionR2', [ 6	 24	 0.009	 0.065	 0.485	 447	 447	 447	 0	 0	 1	-30	 30]},
	{'mpc_regionR1', 'mpc_regionR3', [ 44	 21	 0.1	 0.274	 0.031	 101	 101	 101	 0	 0	 1	-30	 30]},
	{'mpc_regionR1', 'mpc_regionR3', [ 44	 22	 0.109	 0.393	 0.036	 72	 72	 72	 0	 0	 1	-30	 30]},
	{'mpc_regionR1', 'mpc_regionR3', [ 46	 22	 0.017	 0.042	 0.006	 648	 648	 648	 0	 0	 1	-30	 30]},
	{'mpc_regionR2', 'mpc_regionR1', [ 3	 1	 0	 0.005	 0	 5867	 5867	 5867	 0.971	 0	 1	-30	 30]},
	{'mpc_regionR3', 'mpc_regionR1', [ 3	 15	 0	 0.02	 0	 1467	 1467	 1467	 1.008	 0	 1	-30	 30]},
	{'mpc_regionR1', 'mpc_regionR2', [ 25	 25	 0	 0.038	 0	 772	 772	 772	 1.017	 0	 1	-30	 30]},
};

